/*---------------------------------------------------------------------------*\
| =========                 |                                                 |
| \\      /  F ield         | OpenFOAM: The Open Source CFD Toolbox           |
|  \\    /   O peration     | Version:  2212                                  |
|   \\  /    A nd           | Website:  www.openfoam.com                      |
|    \\/     M anipulation  |                                                 |
\*---------------------------------------------------------------------------*/
Build  : _66908158ae-20221220 OPENFOAM=2212 version=v2212
Arch   : "LSB;label=32;scalar=64"
Exec   : chtMultiRegionSimpleFoam
Date   : Apr 17 2023
Time   : 19:29:54
Host   : DESKTOP-RDCRTE6
PID    : 7239
I/O    : uncollated
Case   : /mnt/e/openfoamCase/solarBeamWithTreesChu
nProcs : 1
trapFpe: Floating point exception trapping enabled (FOAM_SIGFPE).
fileModificationChecking : Monitoring run-time modified files using timeStampMaster (fileModificationSkew 5, maxFileModificationPolls 20)
allowSystemOperations : Allowing user-supplied system call operations

// * * * * * * * * * * * * * * * * * * * * * * * * * * * * * * * * * * * * * //
Create time

Create fluid mesh for region air for time = 0

Create fluid mesh for region solid for time = 0

Create solid mesh for region floor for time = 0

*** Reading fluid mesh thermophysical properties for region air

    Adding to thermoFluid

Selecting thermodynamics package 
{
    type            heRhoThermo;
    mixture         pureMixture;
    transport       const;
    thermo          hConst;
    equationOfState perfectGas;
    specie          specie;
    energy          sensibleEnthalpy;
}

    Adding to rhoFluid

    Adding to UFluid

    Adding to phiFluid

    Adding to hRefFluid

    Adding to ghFluid

    Adding to ghfFluid

    Adding to turbulence

Selecting turbulence model type RAS
Selecting RAS turbulence model kEpsilon
RAS
{
    RASModel        kEpsilon;
    turbulence      on;
    printCoeffs     on;
    Cmu             0.09;
    C1              1.44;
    C2              1.92;
    C3              0;
    sigmak          1;
    sigmaEps        1.3;
}

Selecting radiationModel fvDOM
Selecting absorptionEmissionModel multiBandAbsorptionEmission
Selecting scatterModel none
Selecting sootModel none
fvDOM : Allocated 72 rays with average orientation:
Sun direction : (0 0 -1)

Sun ray ID : 36

	I0 : dAve : 	(0.002401124 0.0692462 -0.005706852) : omega : 	0.07014893 : d : 	(0.03465435 0.9993994 -8.326673e-17)
	I1 : dAve : 	(0.01408861 0.06802747 -0.002672793) : omega : 	0.07014893 : d : 	(0.1636751 0.9859455 0.03349365)
	I2 : dAve : 	(0.0225881 0.06551033 0.005616408) : omega : 	0.07014893 : d : 	(0.2575029 0.9581583 0.125)
	I3 : dAve : 	(0.02562216 0.06236924 0.01693967) : omega : 	0.07014893 : d : 	(0.2909965 0.9234831 0.25)
	I4 : dAve : 	(0.02237781 0.05944586 0.02826293) : omega : 	0.07014893 : d : 	(0.2551815 0.8912112 0.375)
	I5 : dAve : 	(0.01372438 0.0575235 0.03655213) : omega : 	0.07014893 : d : 	(0.1596543 0.8699898 0.4665064)
	I6 : dAve : 	(0.001980551 0.05711725 0.03958619) : omega : 	0.07014893 : d : 	(0.03001155 0.8655052 0.5)
	I7 : dAve : 	(-0.009706935 0.05833598 0.03655213) : omega : 	0.07014893 : d : 	(-0.09900924 0.878959 0.4665064)
	I8 : dAve : 	(-0.01820642 0.06085312 0.02826293) : omega : 	0.07014893 : d : 	(-0.192837 0.9067463 0.375)
	I9 : dAve : 	(-0.02124048 0.06399421 0.01693967) : omega : 	0.07014893 : d : 	(-0.2263306 0.9414215 0.25)
	I10 : dAve : 	(-0.01799614 0.06691759 0.005616408) : omega : 	0.07014893 : d : 	(-0.1905156 0.9736934 0.125)
	I11 : dAve : 	(-0.009342708 0.06883995 -0.002672793) : omega : 	0.07014893 : d : 	(-0.09498845 0.9949148 0.03349365)
	I12 : dAve : 	(0.005597158 0.1614169 -0.09702036) : omega : 	0.1916505 : d : 	(0.03001155 0.8655052 -0.5)
	I13 : dAve : 	(0.07315228 0.1543725 -0.07948313) : omega : 	0.1916505 : d : 	(0.3825029 0.8287487 -0.4084936)
	I14 : dAve : 	(0.1222804 0.1398231 -0.03157051) : omega : 	0.1916505 : d : 	(0.6388451 0.7528325 -0.1584936)
	I15 : dAve : 	(0.1398176 0.1216672 0.03387933) : omega : 	0.1916505 : d : 	(0.7303514 0.6580981 0.1830127)
	I16 : dAve : 	(0.1210649 0.1047697 0.09932918) : omega : 	0.1916505 : d : 	(0.6325029 0.5699297 0.5245191)
	I17 : dAve : 	(0.071047 0.09365818 0.1472418) : omega : 	0.1916505 : d : 	(0.3715179 0.5119518 0.7745191)
	I18 : dAve : 	(0.003166192 0.09131005 0.164779) : omega : 	0.1916505 : d : 	(0.01732717 0.4996997 0.8660254)
	I19 : dAve : 	(-0.06438893 0.09835445 0.1472418) : omega : 	0.1916505 : d : 	(-0.3351642 0.5364562 0.7745191)
	I20 : dAve : 	(-0.113517 0.1129038 0.09932918) : omega : 	0.1916505 : d : 	(-0.5915064 0.6123724 0.5245191)
	I21 : dAve : 	(-0.1310543 0.1310597 0.03387933) : omega : 	0.1916505 : d : 	(-0.6830127 0.7071068 0.1830127)
	I22 : dAve : 	(-0.1123015 0.1479572 -0.03157051) : omega : 	0.1916505 : d : 	(-0.5851642 0.7952752 -0.1584936)
	I23 : dAve : 	(-0.06228365 0.1590687 -0.07948313) : omega : 	0.1916505 : d : 	(-0.3241792 0.8532531 -0.4084936)
	I24 : dAve : 	(0.004411517 0.1272241 -0.2222132) : omega : 	0.2617994 : d : 	(0.01732717 0.4996997 -0.8660254)
	I25 : dAve : 	(0.1278343 0.114354 -0.1901728) : omega : 	0.2617994 : d : 	(0.4988393 0.4494894 -0.7410254)
	I26 : dAve : 	(0.217591 0.08777235 -0.1026368) : omega : 	0.2617994 : d : 	(0.8490092 0.3457858 -0.3995191)
	I27 : dAve : 	(0.2496314 0.05460168 0.01693967) : omega : 	0.2617994 : d : 	(0.9740092 0.2163763 0.0669873)
	I28 : dAve : 	(0.2153703 0.02373002 0.1365161) : omega : 	0.2617994 : d : 	(0.8403457 0.09593599 0.5334936)
	I29 : dAve : 	(0.123988 0.003429419 0.2240521) : omega : 	0.2617994 : d : 	(0.4838335 0.01673677 0.875)
	I30 : dAve : 	(-2.984158e-05 -0.0008606035 0.2560925) : omega : 	0.2617994 : d : 	(3.885781e-16 3.330669e-16 1)
	I31 : dAve : 	(-0.1234526 0.01200946 0.2240521) : omega : 	0.2617994 : d : 	(-0.4815121 0.0502103 0.875)
	I32 : dAve : 	(-0.2132093 0.0385911 0.1365161) : omega : 	0.2617994 : d : 	(-0.8316821 0.1539138 0.5334936)
	I33 : dAve : 	(-0.2452497 0.07176177 0.01693967) : omega : 	0.2617994 : d : 	(-0.9566821 0.2833234 0.0669873)
	I34 : dAve : 	(-0.2109886 0.1026334 -0.1026368) : omega : 	0.2617994 : d : 	(-0.8230185 0.4037637 -0.3995191)
	I35 : dAve : 	(-0.1196063 0.122934 -0.1901728) : omega : 	0.2617994 : d : 	(-0.4665064 0.4829629 -0.7410254)
	I36 : dAve : 	(2.984158e-05 0.0008606035 -0.2560925) : omega : 	0.2617994 : d : 	(0 2.775558e-17 -1)
	I37 : dAve : 	(0.1234526 -0.01200946 -0.2240521) : omega : 	0.2617994 : d : 	(0.4815121 -0.0502103 -0.875)
	I38 : dAve : 	(0.2132093 -0.0385911 -0.1365161) : omega : 	0.2617994 : d : 	(0.8316821 -0.1539138 -0.5334936)
	I39 : dAve : 	(0.2452497 -0.07176177 -0.01693967) : omega : 	0.2617994 : d : 	(0.9566821 -0.2833234 -0.0669873)
	I40 : dAve : 	(0.2109886 -0.1026334 0.1026368) : omega : 	0.2617994 : d : 	(0.8230185 -0.4037637 0.3995191)
	I41 : dAve : 	(0.1196063 -0.122934 0.1901728) : omega : 	0.2617994 : d : 	(0.4665064 -0.4829629 0.7410254)
	I42 : dAve : 	(-0.004411517 -0.1272241 0.2222132) : omega : 	0.2617994 : d : 	(-0.01732717 -0.4996997 0.8660254)
	I43 : dAve : 	(-0.1278343 -0.114354 0.1901728) : omega : 	0.2617994 : d : 	(-0.4988393 -0.4494894 0.7410254)
	I44 : dAve : 	(-0.217591 -0.08777235 0.1026368) : omega : 	0.2617994 : d : 	(-0.8490092 -0.3457858 0.3995191)
	I45 : dAve : 	(-0.2496314 -0.05460168 -0.01693967) : omega : 	0.2617994 : d : 	(-0.9740092 -0.2163763 -0.0669873)
	I46 : dAve : 	(-0.2153703 -0.02373002 -0.1365161) : omega : 	0.2617994 : d : 	(-0.8403457 -0.09593599 -0.5334936)
	I47 : dAve : 	(-0.123988 -0.003429419 -0.2240521) : omega : 	0.2617994 : d : 	(-0.4838335 -0.01673677 -0.875)
	I48 : dAve : 	(-0.003166192 -0.09131005 -0.164779) : omega : 	0.1916505 : d : 	(-0.01732717 -0.4996997 -0.8660254)
	I49 : dAve : 	(0.06438893 -0.09835445 -0.1472418) : omega : 	0.1916505 : d : 	(0.3351642 -0.5364562 -0.7745191)
	I50 : dAve : 	(0.113517 -0.1129038 -0.09932918) : omega : 	0.1916505 : d : 	(0.5915064 -0.6123724 -0.5245191)
	I51 : dAve : 	(0.1310543 -0.1310597 -0.03387933) : omega : 	0.1916505 : d : 	(0.6830127 -0.7071068 -0.1830127)
	I52 : dAve : 	(0.1123015 -0.1479572 0.03157051) : omega : 	0.1916505 : d : 	(0.5851642 -0.7952752 0.1584936)
	I53 : dAve : 	(0.06228365 -0.1590687 0.07948313) : omega : 	0.1916505 : d : 	(0.3241792 -0.8532531 0.4084936)
	I54 : dAve : 	(-0.005597158 -0.1614169 0.09702036) : omega : 	0.1916505 : d : 	(-0.03001155 -0.8655052 0.5)
	I55 : dAve : 	(-0.07315228 -0.1543725 0.07948313) : omega : 	0.1916505 : d : 	(-0.3825029 -0.8287487 0.4084936)
	I56 : dAve : 	(-0.1222804 -0.1398231 0.03157051) : omega : 	0.1916505 : d : 	(-0.6388451 -0.7528325 0.1584936)
	I57 : dAve : 	(-0.1398176 -0.1216672 -0.03387933) : omega : 	0.1916505 : d : 	(-0.7303514 -0.6580981 -0.1830127)
	I58 : dAve : 	(-0.1210649 -0.1047697 -0.09932918) : omega : 	0.1916505 : d : 	(-0.6325029 -0.5699297 -0.5245191)
	I59 : dAve : 	(-0.071047 -0.09365818 -0.1472418) : omega : 	0.1916505 : d : 	(-0.3715179 -0.5119518 -0.7745191)
	I60 : dAve : 	(-0.001980551 -0.05711725 -0.03958619) : omega : 	0.07014893 : d : 	(-0.03001155 -0.8655052 -0.5)
	I61 : dAve : 	(0.009706935 -0.05833598 -0.03655213) : omega : 	0.07014893 : d : 	(0.09900924 -0.878959 -0.4665064)
	I62 : dAve : 	(0.01820642 -0.06085312 -0.02826293) : omega : 	0.07014893 : d : 	(0.192837 -0.9067463 -0.375)
	I63 : dAve : 	(0.02124048 -0.06399421 -0.01693967) : omega : 	0.07014893 : d : 	(0.2263306 -0.9414215 -0.25)
	I64 : dAve : 	(0.01799614 -0.06691759 -0.005616408) : omega : 	0.07014893 : d : 	(0.1905156 -0.9736934 -0.125)
	I65 : dAve : 	(0.009342708 -0.06883995 0.002672793) : omega : 	0.07014893 : d : 	(0.09498845 -0.9949148 -0.03349365)
	I66 : dAve : 	(-0.002401124 -0.0692462 0.005706852) : omega : 	0.07014893 : d : 	(-0.03465435 -0.9993994 3.885781e-16)
	I67 : dAve : 	(-0.01408861 -0.06802747 0.002672793) : omega : 	0.07014893 : d : 	(-0.1636751 -0.9859455 -0.03349365)
	I68 : dAve : 	(-0.0225881 -0.06551033 -0.005616408) : omega : 	0.07014893 : d : 	(-0.2575029 -0.9581583 -0.125)
	I69 : dAve : 	(-0.02562216 -0.06236924 -0.01693967) : omega : 	0.07014893 : d : 	(-0.2909965 -0.9234831 -0.25)
	I70 : dAve : 	(-0.02237781 -0.05944586 -0.02826293) : omega : 	0.07014893 : d : 	(-0.2551815 -0.8912112 -0.375)
	I71 : dAve : 	(-0.01372438 -0.0575235 -0.03655213) : omega : 	0.07014893 : d : 	(-0.1596543 -0.8699898 -0.4665064)
Total omega : 12.56637

    Adding MRF

No MRF models present

    Adding fvOptions

*** Reading fluid mesh thermophysical properties for region solid

    Adding to thermoFluid

Selecting thermodynamics package 
{
    type            heRhoThermo;
    mixture         pureMixture;
    transport       const;
    thermo          hConst;
    equationOfState perfectGas;
    specie          specie;
    energy          sensibleEnthalpy;
}

    Adding to rhoFluid

    Adding to UFluid

    Adding to phiFluid

    Adding to hRefFluid

    Adding to ghFluid

    Adding to ghfFluid

    Adding to turbulence

Selecting turbulence model type RAS
Selecting RAS turbulence model kEpsilon
RAS
{
    RASModel        kEpsilon;
    turbulence      on;
    printCoeffs     on;
    Cmu             0.09;
    C1              1.44;
    C2              1.92;
    C3              0;
    sigmak          1;
    sigmaEps        1.3;
}

Selecting radiationModel fvDOM
Selecting absorptionEmissionModel multiBandAbsorptionEmission
Selecting scatterModel none
Selecting sootModel none
fvDOM : Allocated 72 rays with average orientation:
Sun direction : (0 0 -1)

Sun ray ID : 36

	I0 : dAve : 	(0.002401124 0.0692462 -0.005706852) : omega : 	0.07014893 : d : 	(0.03465435 0.9993994 -8.326673e-17)
	I1 : dAve : 	(0.01408861 0.06802747 -0.002672793) : omega : 	0.07014893 : d : 	(0.1636751 0.9859455 0.03349365)
	I2 : dAve : 	(0.0225881 0.06551033 0.005616408) : omega : 	0.07014893 : d : 	(0.2575029 0.9581583 0.125)
	I3 : dAve : 	(0.02562216 0.06236924 0.01693967) : omega : 	0.07014893 : d : 	(0.2909965 0.9234831 0.25)
	I4 : dAve : 	(0.02237781 0.05944586 0.02826293) : omega : 	0.07014893 : d : 	(0.2551815 0.8912112 0.375)
	I5 : dAve : 	(0.01372438 0.0575235 0.03655213) : omega : 	0.07014893 : d : 	(0.1596543 0.8699898 0.4665064)
	I6 : dAve : 	(0.001980551 0.05711725 0.03958619) : omega : 	0.07014893 : d : 	(0.03001155 0.8655052 0.5)
	I7 : dAve : 	(-0.009706935 0.05833598 0.03655213) : omega : 	0.07014893 : d : 	(-0.09900924 0.878959 0.4665064)
	I8 : dAve : 	(-0.01820642 0.06085312 0.02826293) : omega : 	0.07014893 : d : 	(-0.192837 0.9067463 0.375)
	I9 : dAve : 	(-0.02124048 0.06399421 0.01693967) : omega : 	0.07014893 : d : 	(-0.2263306 0.9414215 0.25)
	I10 : dAve : 	(-0.01799614 0.06691759 0.005616408) : omega : 	0.07014893 : d : 	(-0.1905156 0.9736934 0.125)
	I11 : dAve : 	(-0.009342708 0.06883995 -0.002672793) : omega : 	0.07014893 : d : 	(-0.09498845 0.9949148 0.03349365)
	I12 : dAve : 	(0.005597158 0.1614169 -0.09702036) : omega : 	0.1916505 : d : 	(0.03001155 0.8655052 -0.5)
	I13 : dAve : 	(0.07315228 0.1543725 -0.07948313) : omega : 	0.1916505 : d : 	(0.3825029 0.8287487 -0.4084936)
	I14 : dAve : 	(0.1222804 0.1398231 -0.03157051) : omega : 	0.1916505 : d : 	(0.6388451 0.7528325 -0.1584936)
	I15 : dAve : 	(0.1398176 0.1216672 0.03387933) : omega : 	0.1916505 : d : 	(0.7303514 0.6580981 0.1830127)
	I16 : dAve : 	(0.1210649 0.1047697 0.09932918) : omega : 	0.1916505 : d : 	(0.6325029 0.5699297 0.5245191)
	I17 : dAve : 	(0.071047 0.09365818 0.1472418) : omega : 	0.1916505 : d : 	(0.3715179 0.5119518 0.7745191)
	I18 : dAve : 	(0.003166192 0.09131005 0.164779) : omega : 	0.1916505 : d : 	(0.01732717 0.4996997 0.8660254)
	I19 : dAve : 	(-0.06438893 0.09835445 0.1472418) : omega : 	0.1916505 : d : 	(-0.3351642 0.5364562 0.7745191)
	I20 : dAve : 	(-0.113517 0.1129038 0.09932918) : omega : 	0.1916505 : d : 	(-0.5915064 0.6123724 0.5245191)
	I21 : dAve : 	(-0.1310543 0.1310597 0.03387933) : omega : 	0.1916505 : d : 	(-0.6830127 0.7071068 0.1830127)
	I22 : dAve : 	(-0.1123015 0.1479572 -0.03157051) : omega : 	0.1916505 : d : 	(-0.5851642 0.7952752 -0.1584936)
	I23 : dAve : 	(-0.06228365 0.1590687 -0.07948313) : omega : 	0.1916505 : d : 	(-0.3241792 0.8532531 -0.4084936)
	I24 : dAve : 	(0.004411517 0.1272241 -0.2222132) : omega : 	0.2617994 : d : 	(0.01732717 0.4996997 -0.8660254)
	I25 : dAve : 	(0.1278343 0.114354 -0.1901728) : omega : 	0.2617994 : d : 	(0.4988393 0.4494894 -0.7410254)
	I26 : dAve : 	(0.217591 0.08777235 -0.1026368) : omega : 	0.2617994 : d : 	(0.8490092 0.3457858 -0.3995191)
	I27 : dAve : 	(0.2496314 0.05460168 0.01693967) : omega : 	0.2617994 : d : 	(0.9740092 0.2163763 0.0669873)
	I28 : dAve : 	(0.2153703 0.02373002 0.1365161) : omega : 	0.2617994 : d : 	(0.8403457 0.09593599 0.5334936)
	I29 : dAve : 	(0.123988 0.003429419 0.2240521) : omega : 	0.2617994 : d : 	(0.4838335 0.01673677 0.875)
	I30 : dAve : 	(-2.984158e-05 -0.0008606035 0.2560925) : omega : 	0.2617994 : d : 	(3.885781e-16 3.330669e-16 1)
	I31 : dAve : 	(-0.1234526 0.01200946 0.2240521) : omega : 	0.2617994 : d : 	(-0.4815121 0.0502103 0.875)
	I32 : dAve : 	(-0.2132093 0.0385911 0.1365161) : omega : 	0.2617994 : d : 	(-0.8316821 0.1539138 0.5334936)
	I33 : dAve : 	(-0.2452497 0.07176177 0.01693967) : omega : 	0.2617994 : d : 	(-0.9566821 0.2833234 0.0669873)
	I34 : dAve : 	(-0.2109886 0.1026334 -0.1026368) : omega : 	0.2617994 : d : 	(-0.8230185 0.4037637 -0.3995191)
	I35 : dAve : 	(-0.1196063 0.122934 -0.1901728) : omega : 	0.2617994 : d : 	(-0.4665064 0.4829629 -0.7410254)
	I36 : dAve : 	(2.984158e-05 0.0008606035 -0.2560925) : omega : 	0.2617994 : d : 	(0 2.775558e-17 -1)
	I37 : dAve : 	(0.1234526 -0.01200946 -0.2240521) : omega : 	0.2617994 : d : 	(0.4815121 -0.0502103 -0.875)
	I38 : dAve : 	(0.2132093 -0.0385911 -0.1365161) : omega : 	0.2617994 : d : 	(0.8316821 -0.1539138 -0.5334936)
	I39 : dAve : 	(0.2452497 -0.07176177 -0.01693967) : omega : 	0.2617994 : d : 	(0.9566821 -0.2833234 -0.0669873)
	I40 : dAve : 	(0.2109886 -0.1026334 0.1026368) : omega : 	0.2617994 : d : 	(0.8230185 -0.4037637 0.3995191)
	I41 : dAve : 	(0.1196063 -0.122934 0.1901728) : omega : 	0.2617994 : d : 	(0.4665064 -0.4829629 0.7410254)
	I42 : dAve : 	(-0.004411517 -0.1272241 0.2222132) : omega : 	0.2617994 : d : 	(-0.01732717 -0.4996997 0.8660254)
	I43 : dAve : 	(-0.1278343 -0.114354 0.1901728) : omega : 	0.2617994 : d : 	(-0.4988393 -0.4494894 0.7410254)
	I44 : dAve : 	(-0.217591 -0.08777235 0.1026368) : omega : 	0.2617994 : d : 	(-0.8490092 -0.3457858 0.3995191)
	I45 : dAve : 	(-0.2496314 -0.05460168 -0.01693967) : omega : 	0.2617994 : d : 	(-0.9740092 -0.2163763 -0.0669873)
	I46 : dAve : 	(-0.2153703 -0.02373002 -0.1365161) : omega : 	0.2617994 : d : 	(-0.8403457 -0.09593599 -0.5334936)
	I47 : dAve : 	(-0.123988 -0.003429419 -0.2240521) : omega : 	0.2617994 : d : 	(-0.4838335 -0.01673677 -0.875)
	I48 : dAve : 	(-0.003166192 -0.09131005 -0.164779) : omega : 	0.1916505 : d : 	(-0.01732717 -0.4996997 -0.8660254)
	I49 : dAve : 	(0.06438893 -0.09835445 -0.1472418) : omega : 	0.1916505 : d : 	(0.3351642 -0.5364562 -0.7745191)
	I50 : dAve : 	(0.113517 -0.1129038 -0.09932918) : omega : 	0.1916505 : d : 	(0.5915064 -0.6123724 -0.5245191)
	I51 : dAve : 	(0.1310543 -0.1310597 -0.03387933) : omega : 	0.1916505 : d : 	(0.6830127 -0.7071068 -0.1830127)
	I52 : dAve : 	(0.1123015 -0.1479572 0.03157051) : omega : 	0.1916505 : d : 	(0.5851642 -0.7952752 0.1584936)
	I53 : dAve : 	(0.06228365 -0.1590687 0.07948313) : omega : 	0.1916505 : d : 	(0.3241792 -0.8532531 0.4084936)
	I54 : dAve : 	(-0.005597158 -0.1614169 0.09702036) : omega : 	0.1916505 : d : 	(-0.03001155 -0.8655052 0.5)
	I55 : dAve : 	(-0.07315228 -0.1543725 0.07948313) : omega : 	0.1916505 : d : 	(-0.3825029 -0.8287487 0.4084936)
	I56 : dAve : 	(-0.1222804 -0.1398231 0.03157051) : omega : 	0.1916505 : d : 	(-0.6388451 -0.7528325 0.1584936)
	I57 : dAve : 	(-0.1398176 -0.1216672 -0.03387933) : omega : 	0.1916505 : d : 	(-0.7303514 -0.6580981 -0.1830127)
	I58 : dAve : 	(-0.1210649 -0.1047697 -0.09932918) : omega : 	0.1916505 : d : 	(-0.6325029 -0.5699297 -0.5245191)
	I59 : dAve : 	(-0.071047 -0.09365818 -0.1472418) : omega : 	0.1916505 : d : 	(-0.3715179 -0.5119518 -0.7745191)
	I60 : dAve : 	(-0.001980551 -0.05711725 -0.03958619) : omega : 	0.07014893 : d : 	(-0.03001155 -0.8655052 -0.5)
	I61 : dAve : 	(0.009706935 -0.05833598 -0.03655213) : omega : 	0.07014893 : d : 	(0.09900924 -0.878959 -0.4665064)
	I62 : dAve : 	(0.01820642 -0.06085312 -0.02826293) : omega : 	0.07014893 : d : 	(0.192837 -0.9067463 -0.375)
	I63 : dAve : 	(0.02124048 -0.06399421 -0.01693967) : omega : 	0.07014893 : d : 	(0.2263306 -0.9414215 -0.25)
	I64 : dAve : 	(0.01799614 -0.06691759 -0.005616408) : omega : 	0.07014893 : d : 	(0.1905156 -0.9736934 -0.125)
	I65 : dAve : 	(0.009342708 -0.06883995 0.002672793) : omega : 	0.07014893 : d : 	(0.09498845 -0.9949148 -0.03349365)
	I66 : dAve : 	(-0.002401124 -0.0692462 0.005706852) : omega : 	0.07014893 : d : 	(-0.03465435 -0.9993994 3.885781e-16)
	I67 : dAve : 	(-0.01408861 -0.06802747 0.002672793) : omega : 	0.07014893 : d : 	(-0.1636751 -0.9859455 -0.03349365)
	I68 : dAve : 	(-0.0225881 -0.06551033 -0.005616408) : omega : 	0.07014893 : d : 	(-0.2575029 -0.9581583 -0.125)
	I69 : dAve : 	(-0.02562216 -0.06236924 -0.01693967) : omega : 	0.07014893 : d : 	(-0.2909965 -0.9234831 -0.25)
	I70 : dAve : 	(-0.02237781 -0.05944586 -0.02826293) : omega : 	0.07014893 : d : 	(-0.2551815 -0.8912112 -0.375)
	I71 : dAve : 	(-0.01372438 -0.0575235 -0.03655213) : omega : 	0.07014893 : d : 	(-0.1596543 -0.8699898 -0.4665064)
Total omega : 12.56637

    Adding MRF

No MRF models present

    Adding fvOptions

